/*--------------------------------*- C++ -*----------------------------------*\
  =========                 |
  \\      /  F ield         | OpenFOAM: The Open Source CFD Toolbox
   \\    /   O peration     | Website:  https://openfoam.org
    \\  /    A nd           | Version:  6
     \\/     M anipulation  |
\*---------------------------------------------------------------------------*/
FoamFile
{
    version     2.0;
    format      ascii;
    class       dictionary;
    object      topoSetDict;
}

// * * * * * * * * * * * * * * * * * * * * * * * * * * * * * * * * * * * * * //

actions
(
    {
        name    c00;
        type    cellSet;
        action  new;
        source  boxToCell;
        sourceInfo
        {
            box (-1e6 -1e6 -5) ( 1e6 1e6 5);
        }
    }
	    {
        name    c0;
        type    cellZoneSet;
        action  new;
        source  setToCellZone;
        sourceInfo
        {
            set c00;
        }
    }
);

// ************************************************************************* //
